  Page 1                                    Thu Aug  1 08:01:45 2024

  ******************************************************************
  *                           E P A N E T                          *
  *                   Hydraulic and Water Quality                  *
  *                   Analysis for Pipe Networks                   *
  *                         Version 2.3                            *
  ******************************************************************
  
  Analysis begun Thu Aug  1 08:01:45 2024

  Analysis ended Thu Aug  1 08:02:00 2024
